Circuit: * C:\Users\mgenovesi\Desktop\Materias\Dase\LT Spice trabajo 3 creo\SIN TERMINAR Opamp xd lolllll.asc

.OP point found by inspection.
Ignoring empty pin current: Ix(u1:1)
Ignoring empty pin current: Ix(u1:2)
Ignoring empty pin current: Ix(u1:1)
Ignoring empty pin current: Ix(u1:2)

Date: Fri Nov 24 14:22:28 2023
Total elapsed time: 0.084 seconds.

tnom = 27
temp = 27
method = modified trap
totiter = 2102
traniter = 2102
tranpoints = 1052
accept = 1051
rejected = 1
matrix size = 5
fillins = 0
solver = Normal
Avg thread counts: 1.1/1.3/1.3/1.1
Matrix Compiler1: off  [0.1]/0.3/0.3
Matrix Compiler2: off  [0.1]/0.5/0.5

