Circuit: * C:\Users\mgenovesi\Desktop\Dase\LT Spice Tp2 con Leonidas\Draft1.asc

