Circuit: * C:\Users\mgenovesi\Desktop\Dase\LT Spice Tp2 con Leonidas\Punto4.asc

.OP point found by inspection.

Date: Fri Jun  9 16:57:03 2023
Total elapsed time: 0.105 seconds.

tnom = 27
temp = 27
method = modified trap
totiter = 2240
traniter = 2240
tranpoints = 1114
accept = 1099
rejected = 15
matrix size = 4
fillins = 1
solver = Normal
Avg thread counts: 1.1/1.3/1.3/1.1
Matrix Compiler1:      13 opcodes  0.2/[0.1]/0.2
Matrix Compiler2:      24 opcodes  0.1/[0.1]/0.1

