Circuit: * C:\Users\mgenovesi\Desktop\Dase\LT Spice Tp2 con Leonidas\Punto6.asc

Direct Newton iteration for .op point succeeded.

Date: Fri Jun 16 15:43:31 2023
Total elapsed time: 0.064 seconds.

tnom = 27
temp = 27
method = modified trap
totiter = 2405
traniter = 2399
tranpoints = 1122
accept = 1100
rejected = 22
matrix size = 7
fillins = 0
solver = Normal
Avg thread counts: 1.1/1.3/1.3/1.1
Matrix Compiler1: off  [0.1]/0.1/0.2
Matrix Compiler2: off  [0.1]/0.3/0.2

