Circuit: * C:\Users\mgenovesi\Desktop\Dase\LT Spice Tp2 con Leonidas\Punto 3.asc

.OP point found by inspection.

Date: Thu Jun 22 15:25:59 2023
Total elapsed time: 0.109 seconds.

tnom = 27
temp = 27
method = modified trap
totiter = 2202
traniter = 2202
tranpoints = 1089
accept = 1080
rejected = 9
matrix size = 10
fillins = 5
solver = Normal
Avg thread counts: 1.1/1.3/1.3/1.1
Matrix Compiler1:      38 opcodes  0.6/[0.2]/0.3
Matrix Compiler2: 802 bytes object code size  0.4/0.3/[0.3]

