Circuit: * C:\Users\mgenovesi\Desktop\Dase\LT Spice Tp2 con Leonidas\Punto 1, 2, y 3.asc

.OP point found by inspection.
.step cval=5e-06
.step cval=5e-05
.step cval=0.00015

Date: Thu Jun 22 15:23:39 2023
Total elapsed time: 0.177 seconds.

tnom = 27
temp = 27
method = modified trap
totiter = 2116
traniter = 2116
tranpoints = 1057
accept = 1056
rejected = 1
matrix size = 8
fillins = 5
solver = Normal
Avg thread counts: 1.1/1.3/1.3/1.1
Matrix Compiler1: 590 bytes object code size  0.2/0.2/[0.1]
Matrix Compiler2: 656 bytes object code size  0.1/0.2/[0.1]

