Circuit: * C:\Users\mgenovesi\Desktop\Dase\LT Spice Tp2 con Leonidas\Punto5.asc

.OP point found by inspection.

Date: Fri Jun 16 16:42:27 2023
Total elapsed time: 0.084 seconds.

tnom = 27
temp = 27
method = modified trap
totiter = 2401
traniter = 2401
tranpoints = 1117
accept = 1097
rejected = 20
matrix size = 5
fillins = 0
solver = Normal
Avg thread counts: 1.1/1.3/1.3/1.1
Matrix Compiler1: off  [0.1]/0.2/0.2
Matrix Compiler2: off  [0.1]/0.4/0.2

