Circuit: * C:\Users\mgenovesi\Desktop\Dase\LT SPice primer trabajo\Punto 2.asc

Direct Newton iteration for .op point succeeded.

Date: Fri Mar 31 16:38:02 2023
Total elapsed time: 0.752 seconds.

tnom = 27
temp = 27
method = trap
totiter = 3
traniter = 0
tranpoints = 0
accept = 0
rejected = 0
matrix size = 3
fillins = 0
solver = Normal
Avg thread counts: 4.0/0.0/4.0/4.0
Matrix Compiler1: 68 bytes object code size
Matrix Compiler2: 175 bytes object code size
